Circuit: * C:\Uni\DashLogger\Button Debounce.asc

Direct Newton iteration for .op point succeeded.
Heightened Def Con from 0.0104 to 0.0104
Heightened Def Con from 0.0514 to 0.0514

Date: Mon Jan 17 11:11:13 2022
Total elapsed time: 0.338 seconds.

tnom = 27
temp = 27
method = modified trap
totiter = 46047
traniter = 46044
tranpoints = 17664
accept = 14542
rejected = 3124
matrix size = 11
fillins = 0
solver = Normal
Matrix Compiler1: 252 bytes object code size  0.2/0.1/[0.1]
Matrix Compiler2: 603 bytes object code size  0.1/0.2/[0.1]

