Circuit: * C:\Uni\DashLogger\DashLoggerHardware\LTSpice\Draft2.asc

.OP point found by inspection.

Date: Thu Jul 07 16:38:42 2022
Total elapsed time: 0.029 seconds.

tnom = 27
temp = 27
method = modified trap
totiter = 2096
traniter = 2096
tranpoints = 1049
accept = 1048
rejected = 1
matrix size = 3
fillins = 0
solver = Normal
Matrix Compiler1: off  [0.0]/0.0/0.0
Matrix Compiler2: 175 bytes object code size  0.0/0.0/[0.0]

