Circuit: * C:\Uni\DashLogger\InputVoltageDivider.asc

Direct Newton iteration for .op point succeeded.

Date: Tue Jan 11 14:07:19 2022
Total elapsed time: 0.028 seconds.

tnom = 27
temp = 27
method = modified trap
totiter = 2085
traniter = 2082
tranpoints = 1042
accept = 1042
rejected = 0
matrix size = 3
fillins = 0
solver = Normal
Matrix Compiler1: off  [0.0]/0.0/0.0
Matrix Compiler2: 175 bytes object code size  0.0/0.0/[0.0]

